<?xml version="1.0" encoding="UTF-8"?>

<!-- generated on Sat May 16 12:57:04 2020 by Eclipse SUMO duarouter Version 1.2.0
<configuration xmlns:xsi="http://www.w3.org/2001/XMLSchema-instance" xsi:noNamespaceSchemaLocation="http://sumo.dlr.de/xsd/duarouterConfiguration.xsd">

    <input>
        <net-file value="erlangen.net.xml"/>
        <route-files value="trips.trips.xml"/>
    </input>

    <output>
        <output-file value="erlangen.rou.xml"/>
        <alternatives-output value="erlangen.rou.alt.xml"/>
    </output>

    <time>
        <begin value="0"/>
        <end value="4.0"/>
    </time>

    <report>
        <no-warnings value="true"/>
        <ignore-errors value="true"/>
        <no-step-log value="true"/>
    </report>

</configuration>
-->

<routes xmlns:xsi="http://www.w3.org/2001/XMLSchema-instance" xsi:noNamespaceSchemaLocation="http://sumo.dlr.de/xsd/routes_file.xsd">
    <vehicle id="0" depart="0.00">
        <route edges="458166896#16 409716177 464683318 196117051#0 196117051#1 196117051#2 420514149#0 420514149#1 447001270 5673380#0 5673380#1 5673380#2 68674961#0 68674961#1 68674961#2 458177128#1 458177128#2 458177128#3 420499931#0 420499931#1 420904660#0 420904660#1 420904660#2 5671181 46522005 500717399 464543615#0 464543615#1 464543615#2 -195743208#2 -195743208#1 -195743208#0"/>
    </vehicle>
    <vehicle id="2" depart="0.00">
        <route edges="788278348#1 464515614#3 5670296#0 5670296#1 5670296#2 5670296#3 489019752#1 489019752#2 489019752#3 489019752#4 68668519#0 68668519#1 460606347#0 460606347#1 460606347#2 439933932#0 439933932#1 496982024#0 496982024#1 496983397#0 496983397#1 496983396#0 496983396#1 587038081#0 587038081#1 384649120#0 46522006#0"/>
    </vehicle>
    <vehicle id="3" depart="0.00">
        <route edges="5670600 496982022#0 -496982022#0 -5670600 -420904659 -5671315 542096279#0 542096279#1 458166893#0 458166893#1 458166893#2 518451332 458166895#0 458166895#1 587038101"/>
    </vehicle>
</routes>
