<?xml version="1.0" encoding="UTF-8"?>

<!-- generated on Sat May 16 12:57:03 2020 by Eclipse SUMO polyconvert Version 1.2.0
<configuration xmlns:xsi="http://www.w3.org/2001/XMLSchema-instance" xsi:noNamespaceSchemaLocation="http://sumo.dlr.de/xsd/polyconvertConfiguration.xsd">

    <input>
        <net-file value="erlangen.net.xml"/>
        <osm-files value="erlangen.osm"/>
        <type-file value="typemap.xml"/>
    </input>

    <output>
        <output-file value="erlangen.poly.xml"/>
    </output>

    <processing>
        <poi-layer-offset value="5"/>
    </processing>

</configuration>
-->

<additional xmlns:xsi="http://www.w3.org/2001/XMLSchema-instance" xsi:noNamespaceSchemaLocation="http://sumo.dlr.de/xsd/additional_file.xsd">
    <location netOffset="-583799.55,-4508577.05" convBoundary="0.00,-0.00,3824.60,4649.70" origBoundary="-74.007293,40.723714,-73.953139,40.766480" projParameter="+proj=utm +zone=18 +ellps=WGS84 +datum=WGS84 +units=m +no_defs"/>

    <poly id="108159980" type="amenity" color="237,199,199" fill="1" layer="2.00" shape="990.240184,2580.034360 1013.994582,2624.792614 925.422379,2672.062661 953.117912,2723.638113 1167.794944,2608.391472 1100.275820,2484.272402 1049.373480,2511.911091 1064.569918,2540.106995 990.240184,2580.034360"/>
    <poly id="109280421" type="building" color="255,230,230" fill="1" layer="2.00" shape="1915.478095,2114.106287 1887.261867,2061.910530 1776.612238,2121.649682 1804.853677,2173.900811 1915.478095,2114.106287"/>
    <poly id="113722982" type="unknown" color="51,128,255" fill="0" layer="-1.00" shape="1969.826287,3418.845353 1980.972600,3412.834884 2084.407857,3357.090011"/>
    <poly id="113722984" type="unknown" color="51,128,255" fill="0" layer="-1.00" shape="2099.465146,3383.687894 2095.979094,3377.796598 2092.742679,3372.219061 2092.645499,3371.862663 2092.355322,3371.404107 2091.281474,3369.359949 2091.116118,3369.058271 2090.959075,3368.767792 2089.809253,3366.722754 2089.643768,3366.432177 2089.470486,3366.085999 2084.407857,3357.090011 2069.851291,3330.986465 2059.937864,3312.919263 2049.360940,3293.090236 2035.238887,3266.625430 2029.826376,3256.481901 2024.805207,3246.809205 2021.716430,3240.867039"/>
    <poly id="113722985" type="unknown" color="51,128,255" fill="0" layer="-1.00" shape="1914.641938,3387.764339 1923.355274,3384.800949 1945.180662,3373.762577"/>
    <poly id="113722986" type="unknown" color="51,128,255" fill="0" layer="-1.00" shape="2035.238887,3266.625430 1932.100936,3322.141298"/>
    <poly id="113722987" type="landuse" color="194,194,130" fill="1" layer="-4.00" shape="2049.887309,3348.207784 2049.615169,3347.649519 2049.184489,3346.201238 2049.191485,3344.869052 2049.722115,3343.520730 2050.765366,3342.378188 2051.888401,3341.636252 2041.539118,3322.564824 2030.582334,3301.998676 2029.513031,3302.474785 2028.750585,3302.699098 2027.710980,3302.798076 2026.346910,3302.482513 2025.299809,3301.770942 2024.616341,3301.008073 2024.002850,3300.035072 1951.092474,3339.314197 1955.940420,3347.907924 1959.482062,3347.549242 1961.752073,3347.642134 1964.641362,3348.208490 1967.020172,3349.113106 1969.569572,3350.597013 1972.069308,3352.724275 1973.702004,3354.630557 1975.392592,3357.370176 1976.297385,3359.434563 1976.996495,3361.763023 1977.446173,3364.488274 1977.511009,3366.909310 1977.299203,3369.160608 1976.817267,3371.408780 1976.152703,3373.388383 1975.156991,3375.530685 1974.063708,3377.349893 1972.930532,3378.968800 1977.099676,3387.121696 2049.887309,3348.207784"/>
    <poly id="113722989" type="unknown" color="51,128,255" fill="1" layer="-1.00" shape="1969.341339,3379.060470 1972.618315,3374.579807 1974.204930,3370.257208 1974.422730,3366.029782 1973.572351,3360.724176 1972.315408,3356.990378 1969.188381,3353.623506 1964.852239,3351.141918 1959.824320,3350.073409 1954.728057,3349.803472 1950.756075,3351.600463 1948.963984,3352.523408 1937.088809,3358.769740 1945.180662,3373.762577 1952.827947,3387.773282 1964.381669,3381.578766 1969.341339,3379.060470"/>
    <poly id="113722990" type="unknown" color="51,128,255" fill="0" layer="-1.00" shape="1969.341339,3379.060470 1975.699116,3389.958751 2056.836362,3346.689596 2043.441356,3321.609870 2029.632791,3295.781531 1967.166358,3328.464664 1948.686663,3338.553603 1954.728057,3349.803472"/>
    <poly id="113722991" type="unknown" color="51,128,255" fill="0" layer="-1.00" shape="1948.963984,3352.523408 1932.100936,3322.141298 1918.553260,3297.082249"/>
    <poly id="113722992" type="unknown" color="51,128,255" fill="0" layer="-1.00" shape="1995.280599,3440.001189 1980.972600,3412.834884"/>
    <poly id="113944510" type="unknown" color="51,128,255" fill="0" layer="-1.00" shape="2754.727774,3587.358592 2720.103169,3523.204937 2694.716794,3476.179083 2641.196301,3369.350228 2638.531462,3364.023360 2580.762699,3259.354785 2574.966269,3253.236477 2569.576176,3243.403659"/>
    <poly id="113944511" type="unknown" color="51,128,255" fill="0" layer="-1.00" shape="2527.356028,3265.648957 2532.787202,3275.582142 2531.627172,3278.044425 2534.883456,3284.066482 2582.560054,3370.942224 2680.181415,3543.921872"/>
    <poly id="114071252" type="building" color="255,230,230" fill="1" layer="2.00" shape="2450.387938,3110.020556 2449.325987,3110.585509 2422.785712,3124.709493 2422.975869,3125.055875 2425.736010,3130.195028 2426.033456,3130.753601 2428.677861,3135.680466 2430.314069,3138.730420 2431.619708,3141.165905 2434.561551,3146.651346 2443.395493,3163.107774 2444.535777,3165.241575 2446.337318,3168.593219 2449.072617,3173.687684 2449.279138,3174.078666 2452.212770,3179.541815 2478.744470,3165.417840 2479.806415,3164.852891 2478.864219,3163.109968 2476.666277,3158.998748 2476.038274,3157.825699 2474.319611,3154.608240 2473.931249,3153.882071 2472.195701,3150.664416 2471.567697,3149.491368 2469.832534,3146.240411 2469.444042,3145.525343 2467.700306,3142.285389 2467.072301,3141.112342 2465.337134,3137.861386 2464.948641,3137.146319 2463.221655,3133.917663 2462.585207,3132.744517 2460.850036,3129.493563 2460.469984,3128.778594 2458.726110,3125.549743 2458.098102,3124.376696 2456.370981,3121.159143 2455.982616,3120.432976 2454.263676,3117.237723 2453.635667,3116.064677 2451.321706,3111.763376 2450.387938,3110.020556"/>
    <poly id="114193930" type="building" color="255,230,230" fill="1" layer="2.00" shape="2123.312623,2819.027754 2094.985275,2765.863853 2043.476137,2793.955035 2053.118443,2811.441723 2056.153011,2809.689428 2065.916753,2827.621631 2056.163152,2832.859873 2064.678214,2848.523855 2065.240701,2849.529573 2123.312623,2819.027754"/>
    <poly id="118400729" type="unknown" color="51,128,255" fill="0" layer="-1.00" shape="2662.647597,2352.923824 2656.818648,2342.297593 2629.683297,2292.787073 2625.194020,2284.574577 2621.605968,2278.004621 2617.810465,2271.121386 2617.678098,2270.886696 2608.623365,2254.471937 2587.891995,2216.926752 2585.060273,2211.387038 2581.006852,2204.167751 2550.424515,2148.200297 2547.208112,2142.334153 2543.305294,2135.227667 2525.817729,2103.315994"/>
    <poly id="127693103" type="unknown" color="51,128,255" fill="0" layer="-1.00" shape="1954.137865,3462.051218 1961.305072,3475.223713 1994.972023,3537.353038 2032.785877,3607.302148"/>
    <poly id="137564642" type="building" color="255,230,230" fill="1" layer="2.00" shape="2572.762318,3391.578084 2573.092990,3392.181461 2651.786231,3349.578570 2651.405950,3348.885793 2652.026202,3348.548862 2627.094631,3302.250235 2613.152836,3276.430303 2606.446351,3264.372754 2601.178465,3267.231205 2593.252486,3252.594828 2580.762699,3259.354785 2534.883456,3284.066482 2523.862072,3290.166408 2531.705278,3304.668518 2527.474054,3306.961784 2527.664072,3307.319270 2526.806036,3307.775566 2533.465223,3320.276579 2546.664281,3344.644408 2572.311941,3391.828185 2572.762318,3391.578084"/>
    <poly id="138022483" type="building" color="255,230,230" fill="1" layer="2.00" shape="2401.023687,3204.914168 2405.611289,3202.469544 2406.421270,3203.966669 2421.662257,3195.850660 2436.954315,3187.701969 2452.212770,3179.541815 2449.279138,3174.078666 2449.072617,3173.687684 2446.337318,3168.593219 2444.535777,3165.241575 2443.395493,3163.107774 2434.561551,3146.651346 2431.619708,3141.165905 2430.314069,3138.730420 2428.677861,3135.680466 2426.033456,3130.753601 2425.736010,3130.195028 2422.975869,3125.055875 2422.785712,3124.709493 2407.511072,3132.802907 2392.261534,3140.918848 2376.876056,3149.110954 2371.974149,3151.718473 2372.337325,3152.433241 2379.677136,3165.974527 2373.874213,3169.104471 2361.444495,3175.787778 2355.293280,3179.102423 2348.776881,3182.601565 2357.011887,3197.574325 2363.442956,3194.151914 2369.636242,3190.848867 2388.181979,3180.972665 2401.023687,3204.914168"/>
    <poly id="138141251" type="building" color="255,230,230" fill="1" layer="2.00" shape="1087.889713,2975.046525 1096.519167,2970.571303 1096.557547,2968.695474 1097.479324,2959.724372 1099.541409,2950.710826 1102.832390,2942.766070 1111.173226,2942.850553 1112.230268,2944.916570 1115.868706,2937.597524 1121.221009,2930.287020 1126.911856,2924.379276 1134.102977,2918.699676 1141.837921,2914.192046 1149.719020,2910.929543 1157.739353,2908.778864 1166.533346,2907.636262 1175.524261,2907.728271 1177.008790,2907.856319 1183.608231,2899.294514 1187.180663,2899.946111 1196.116590,2902.624323 1199.921869,2904.322202 1200.232194,2914.806224 1207.727929,2919.377504 1212.633000,2911.318087 1215.454917,2913.359961 1221.575865,2917.804459 1218.993412,2921.383035 1225.259115,2927.927510 1230.435948,2935.181136 1234.569434,2942.855777 1237.808091,2951.252894 1240.063679,2960.704539 1243.894528,2960.171197 1244.291020,2968.291446 1244.306919,2972.055270 1234.796118,2971.657449 1234.267093,2980.233368 1243.040950,2985.252341 1241.961115,2990.324748 1239.144058,2998.896608 1237.453793,3002.718564 1226.936401,3002.486835 1222.611248,3009.309453 1216.730749,3016.291860 1210.707188,3021.762734 1203.677227,3026.644751 1195.651730,3030.727099 1187.929057,3033.436258 1179.922382,3035.142971 1171.826121,3035.827264 1163.092183,3035.427341 1161.473501,3035.220041 1162.721791,3038.276355 1158.297156,3044.209693 1156.915612,3043.938501 1151.271632,3042.819076 1143.887007,3040.347436 1142.675828,3039.944974 1140.190260,3038.761850 1134.505378,3036.054357 1129.893633,3033.270353 1122.059169,3037.632523 1087.889713,2975.046525"/>
    <poly id="138141251#1" type="leisure" color="207,245,201" fill="1" layer="0.00" shape="1087.889713,2975.046525 1096.519167,2970.571303 1096.557547,2968.695474 1097.479324,2959.724372 1099.541409,2950.710826 1102.832390,2942.766070 1111.173226,2942.850553 1112.230268,2944.916570 1115.868706,2937.597524 1121.221009,2930.287020 1126.911856,2924.379276 1134.102977,2918.699676 1141.837921,2914.192046 1149.719020,2910.929543 1157.739353,2908.778864 1166.533346,2907.636262 1175.524261,2907.728271 1177.008790,2907.856319 1183.608231,2899.294514 1187.180663,2899.946111 1196.116590,2902.624323 1199.921869,2904.322202 1200.232194,2914.806224 1207.727929,2919.377504 1212.633000,2911.318087 1215.454917,2913.359961 1221.575865,2917.804459 1218.993412,2921.383035 1225.259115,2927.927510 1230.435948,2935.181136 1234.569434,2942.855777 1237.808091,2951.252894 1240.063679,2960.704539 1243.894528,2960.171197 1244.291020,2968.291446 1244.306919,2972.055270 1234.796118,2971.657449 1234.267093,2980.233368 1243.040950,2985.252341 1241.961115,2990.324748 1239.144058,2998.896608 1237.453793,3002.718564 1226.936401,3002.486835 1222.611248,3009.309453 1216.730749,3016.291860 1210.707188,3021.762734 1203.677227,3026.644751 1195.651730,3030.727099 1187.929057,3033.436258 1179.922382,3035.142971 1171.826121,3035.827264 1163.092183,3035.427341 1161.473501,3035.220041 1162.721791,3038.276355 1158.297156,3044.209693 1156.915612,3043.938501 1151.271632,3042.819076 1143.887007,3040.347436 1142.675828,3039.944974 1140.190260,3038.761850 1134.505378,3036.054357 1129.893633,3033.270353 1122.059169,3037.632523 1087.889713,2975.046525"/>
    <poly id="138141251#2" type="sport" color="79,230,125" fill="1" layer="2.00" shape="1087.889713,2975.046525 1096.519167,2970.571303 1096.557547,2968.695474 1097.479324,2959.724372 1099.541409,2950.710826 1102.832390,2942.766070 1111.173226,2942.850553 1112.230268,2944.916570 1115.868706,2937.597524 1121.221009,2930.287020 1126.911856,2924.379276 1134.102977,2918.699676 1141.837921,2914.192046 1149.719020,2910.929543 1157.739353,2908.778864 1166.533346,2907.636262 1175.524261,2907.728271 1177.008790,2907.856319 1183.608231,2899.294514 1187.180663,2899.946111 1196.116590,2902.624323 1199.921869,2904.322202 1200.232194,2914.806224 1207.727929,2919.377504 1212.633000,2911.318087 1215.454917,2913.359961 1221.575865,2917.804459 1218.993412,2921.383035 1225.259115,2927.927510 1230.435948,2935.181136 1234.569434,2942.855777 1237.808091,2951.252894 1240.063679,2960.704539 1243.894528,2960.171197 1244.291020,2968.291446 1244.306919,2972.055270 1234.796118,2971.657449 1234.267093,2980.233368 1243.040950,2985.252341 1241.961115,2990.324748 1239.144058,2998.896608 1237.453793,3002.718564 1226.936401,3002.486835 1222.611248,3009.309453 1216.730749,3016.291860 1210.707188,3021.762734 1203.677227,3026.644751 1195.651730,3030.727099 1187.929057,3033.436258 1179.922382,3035.142971 1171.826121,3035.827264 1163.092183,3035.427341 1161.473501,3035.220041 1162.721791,3038.276355 1158.297156,3044.209693 1156.915612,3043.938501 1151.271632,3042.819076 1143.887007,3040.347436 1142.675828,3039.944974 1140.190260,3038.761850 1134.505378,3036.054357 1129.893633,3033.270353 1122.059169,3037.632523 1087.889713,2975.046525"/>
    <poly id="138141251#3" type="tourism" color="207,245,201" fill="1" layer="2.00" shape="1087.889713,2975.046525 1096.519167,2970.571303 1096.557547,2968.695474 1097.479324,2959.724372 1099.541409,2950.710826 1102.832390,2942.766070 1111.173226,2942.850553 1112.230268,2944.916570 1115.868706,2937.597524 1121.221009,2930.287020 1126.911856,2924.379276 1134.102977,2918.699676 1141.837921,2914.192046 1149.719020,2910.929543 1157.739353,2908.778864 1166.533346,2907.636262 1175.524261,2907.728271 1177.008790,2907.856319 1183.608231,2899.294514 1187.180663,2899.946111 1196.116590,2902.624323 1199.921869,2904.322202 1200.232194,2914.806224 1207.727929,2919.377504 1212.633000,2911.318087 1215.454917,2913.359961 1221.575865,2917.804459 1218.993412,2921.383035 1225.259115,2927.927510 1230.435948,2935.181136 1234.569434,2942.855777 1237.808091,2951.252894 1240.063679,2960.704539 1243.894528,2960.171197 1244.291020,2968.291446 1244.306919,2972.055270 1234.796118,2971.657449 1234.267093,2980.233368 1243.040950,2985.252341 1241.961115,2990.324748 1239.144058,2998.896608 1237.453793,3002.718564 1226.936401,3002.486835 1222.611248,3009.309453 1216.730749,3016.291860 1210.707188,3021.762734 1203.677227,3026.644751 1195.651730,3030.727099 1187.929057,3033.436258 1179.922382,3035.142971 1171.826121,3035.827264 1163.092183,3035.427341 1161.473501,3035.220041 1162.721791,3038.276355 1158.297156,3044.209693 1156.915612,3043.938501 1151.271632,3042.819076 1143.887007,3040.347436 1142.675828,3039.944974 1140.190260,3038.761850 1134.505378,3036.054357 1129.893633,3033.270353 1122.059169,3037.632523 1087.889713,2975.046525"/>
    <poly id="138147416" type="building" color="255,230,230" fill="1" layer="2.00" shape="1345.215514,3046.544212 1295.636597,3073.141657 1291.602132,3065.679056 1259.319852,3083.005246 1256.707281,3078.179106 1223.779611,3095.842207 1221.894617,3092.356692 1217.723430,3094.595875 1214.333863,3096.411045 1202.577539,3074.660193 1206.052169,3072.790483 1210.129867,3070.605731 1208.244987,3067.109119 1229.729531,3055.587345 1241.172744,3049.445949 1238.560148,3044.619816 1270.842541,3027.293534 1266.808024,3019.830948 1316.387181,2993.233308 1333.409726,3024.714862 1337.882410,3032.981880 1345.215514,3046.544212"/>
    <poly id="138147417" type="building" color="255,230,230" fill="1" layer="2.00" shape="1270.420468,2945.665402 1265.046335,2935.744956 1253.884205,2915.177685 1252.685339,2912.965690 1247.757599,2903.871945 1227.496914,2914.652773 1221.575865,2917.804459 1218.993412,2921.383035 1225.259115,2927.927510 1230.435948,2935.181136 1234.569434,2942.855777 1237.808091,2951.252894 1240.063679,2960.704539 1243.894528,2960.171197 1249.170903,2957.278581 1270.420468,2945.665402"/>
    <poly id="146220936" type="building" color="255,230,230" fill="1" layer="2.00" shape="2638.064251,3543.707856 2672.181656,3525.520866 2662.604760,3507.700984 2653.027816,3489.881115 2643.459266,3472.061358 2609.333252,3490.248382 2638.064251,3543.707856"/>
    <poly id="148457887" type="building" color="255,230,230" fill="1" layer="2.00" shape="2291.053261,3262.477265 2287.918108,3256.911920 2277.950005,3238.499613 2275.627414,3234.209369 2263.427498,3240.751177 2258.931285,3232.427782 2251.814740,3219.277790 2251.087341,3217.937073 2316.887959,3182.608295 2344.485629,3233.621950 2291.053261,3262.477265"/>
    <poly id="156943046" type="building" color="255,230,230" fill="1" layer="2.00" shape="2235.129572,2562.143122 2232.562868,2561.402780 2231.872519,2561.228231 2230.904599,2560.961642 2229.433619,2566.207016 2224.181889,2564.736064 2223.900003,2565.743093 2223.741208,2566.329667 2222.984228,2568.985412 2221.334790,2568.511073 2214.888096,2566.693188 2213.196444,2566.218361 2206.758190,2564.400582 2205.074980,2563.925854 2198.628279,2562.107984 2196.894413,2561.632670 2197.625155,2559.054334 2197.818748,2558.379346 2198.074144,2557.471928 2192.712908,2555.977523 2194.210093,2550.654731 2193.250742,2550.377145 2192.669886,2550.226075 2190.035763,2549.473862 2190.511238,2547.791843 2192.316792,2541.362408 2192.809282,2539.669484 2194.623283,2533.240147 2195.098630,2531.569229 2196.878865,2525.139500 2197.337200,2523.479487 2199.912491,2524.208815 2200.543876,2524.371573 2201.511801,2524.638158 2202.974198,2519.403782 2208.234535,2520.863716 2208.498892,2519.911994 2208.674957,2519.292313 2209.414665,2516.669673 2241.775485,2499.537159 2251.390867,2517.157013 2266.804227,2545.191491 2235.129572,2562.143122"/>
    <poly id="156994961" type="unknown" color="51,128,255" fill="0" layer="-1.00" shape="1158.750684,1984.667707 917.435005,2114.420694 675.698924,2244.776060"/>
    <poly id="158404390" type="building" color="255,230,230" fill="1" layer="2.00" shape="1703.956318,1936.004035 1697.099652,1939.655269 1692.316186,1942.198001 1686.130895,1945.479515 1681.270936,1948.065781 1691.884790,1967.883485 1714.570131,1955.821772 1710.916514,1948.996180 1707.940758,1943.432958 1703.956318,1936.004035"/>
    <poly id="158404390#1" type="tourism" color="207,245,201" fill="1" layer="2.00" shape="1703.956318,1936.004035 1697.099652,1939.655269 1692.316186,1942.198001 1686.130895,1945.479515 1681.270936,1948.065781 1691.884790,1967.883485 1714.570131,1955.821772 1710.916514,1948.996180 1707.940758,1943.432958 1703.956318,1936.004035"/>
    <poly id="158858760" type="building" color="255,230,230" fill="1" layer="2.00" shape="1846.504202,2383.192196 1839.900143,2370.859042 1834.394652,2373.793013 1829.749408,2365.124028 1843.368602,2357.876246 1848.013835,2366.545241 1856.585667,2382.498260 1860.825904,2390.407632 1850.537310,2395.873114 1845.040596,2385.628866 1844.346294,2384.332987 1846.504202,2383.192196"/>
    <poly id="159837290" type="building" color="255,230,230" fill="1" layer="2.00" shape="1634.342794,3385.858707 1627.974421,3374.372194 1671.170495,3350.656524 1677.728880,3362.500539 1681.874613,3360.272422 1697.673438,3389.309390 1693.765360,3391.429219 1700.133232,3402.949093 1656.929174,3426.642293 1650.412384,3414.854286 1646.156183,3417.147759 1630.332923,3388.021803 1634.342794,3385.858707"/>
    <poly id="159866208" type="building" color="255,230,230" fill="1" layer="2.00" shape="1677.950312,2682.481926 1671.410216,2670.460517 1673.711405,2669.332433 1656.205514,2637.344925 1629.261339,2652.077707 1625.157190,2654.328545 1629.588438,2688.885261 1634.118381,2688.515606 1635.056320,2695.776156 1660.918722,2692.099813 1670.360870,2686.768645 1671.720731,2685.996075 1677.950312,2682.481926"/>
    <poly id="159871578" type="building" color="255,230,230" fill="1" layer="2.00" shape="1735.463434,2623.549005 1755.457057,2612.633219 1760.104916,2610.100072 1762.016762,2609.056337 1772.748617,2603.196179 1775.680095,2601.598010 1774.811590,2600.033672 1763.547977,2579.553266 1761.398325,2580.716379 1754.014809,2584.705634 1723.424616,2601.460996 1725.332660,2605.135642 1729.996926,2613.616048 1731.973528,2617.202670 1734.471106,2621.738993 1735.463434,2623.549005"/>
    <poly id="159886327" type="building" color="255,230,230" fill="1" layer="2.00" shape="1735.186841,2767.463652 1717.039455,2777.201754 1721.677134,2785.781773 1729.960926,2801.065205 1731.548508,2803.970104 1736.518966,2801.274137 1742.678896,2797.936875 1742.856951,2797.872317 1749.653768,2794.220450 1745.288438,2786.187564 1739.757737,2775.976298 1735.186841,2767.463652"/>
    <poly id="159895893" type="building" color="255,230,230" fill="1" layer="2.00" shape="2656.489257,2887.224882 2680.357830,2874.247359 2652.080530,2822.214222 2628.161968,2835.124642 2628.905836,2836.498894 2631.071583,2840.476556 2637.940160,2853.146623 2642.571016,2861.494023 2653.775943,2882.419257 2656.489257,2887.224882"/>
    <poly id="159899676" type="building" color="255,230,230" fill="1" layer="2.00" shape="2642.770144,3073.105106 2614.496505,3020.805671 2726.687427,2960.164532 2754.952093,3012.464299 2642.770144,3073.105106"/>
    <poly id="159899681" type="building" color="255,230,230" fill="1" layer="2.00" shape="2710.596314,2841.437959 2704.486486,2844.786115 2690.198422,2818.917622 2696.316707,2815.569552 2689.065033,2802.450868 2709.187328,2791.450310 2732.412099,2778.687474 2736.050318,2785.269186 2737.497369,2787.884011 2739.672034,2791.817400 2753.968426,2817.686088 2756.126319,2821.608184 2757.581538,2824.245314 2761.194774,2830.793442 2737.961669,2843.556088 2717.839467,2854.556568 2710.596314,2841.437959"/>
    <poly id="160915057" type="building" color="255,230,230" fill="1" layer="2.00" shape="1821.897486,3247.680970 1795.382606,3261.951780 1789.521740,3251.126021 1782.684487,3238.579247 1781.618207,3236.601838 1767.994399,3211.497797 1767.440599,3210.469997 1793.777300,3196.285844 1799.449947,3206.598728 1783.962580,3214.912991 1786.822883,3220.186279 1789.666427,3225.448273 1805.153778,3217.134021 1809.140844,3224.263306 1816.020661,3236.777290 1821.897486,3247.680970"/>
    <poly id="160942006" type="unknown" color="51,128,255" fill="0" layer="-1.00" shape="2691.684909,2237.988188 2686.705438,2229.092697 2681.908201,2220.499097 2645.531350,2240.047590 2637.132358,2224.606340 2683.436096,2199.555914 2729.995123,2174.364421 2738.420221,2189.728369 2702.141788,2209.499786 2706.776004,2218.313541 2711.435019,2227.171998"/>
    <poly id="160963310" type="building" color="255,230,230" fill="1" layer="2.00" shape="1819.093933,2071.991738 1776.125721,2095.043210 1773.207639,2089.613850 1766.546162,2093.189557 1757.634666,2076.622122 1769.989117,2069.981319 1778.783402,2065.253410 1791.953551,2058.177975 1807.231063,2049.961173 1816.142357,2066.539769 1819.093933,2071.991738"/>
    <poly id="161049888" type="building" color="255,230,230" fill="1" layer="2.00" shape="2626.118216,2983.548876 2617.737749,2968.041210 2638.720968,2957.017207 2633.082388,2946.759568 2631.354391,2943.619679 2629.477414,2940.222702 2628.005549,2937.563198 2625.971537,2933.875732 2624.450183,2931.115732 2623.127163,2928.724419 2622.159772,2926.970084 2651.176564,2911.265860 2679.739778,2964.090606 2650.765722,2979.761907 2646.773850,2972.376747 2626.118216,2983.548876"/>
    <poly id="161157975" type="unknown" color="51,128,255" fill="0" layer="-1.00" shape="2712.780088,2900.993692 2698.712770,2908.301260 2666.262725,2925.897024"/>
    <poly id="161157976" type="unknown" color="51,128,255" fill="0" layer="-1.00" shape="2689.260951,2969.386494 2666.262725,2925.897024 2652.574216,2900.024494"/>
    <poly id="161173093" type="building" color="255,230,230" fill="1" layer="2.00" shape="2372.109232,3220.676034 2401.023687,3204.914168 2388.181979,3180.972665 2369.636242,3190.848867 2363.442956,3194.151914 2357.011887,3197.574325 2358.409237,3200.110783 2366.434064,3215.003395 2369.003663,3219.829448 2372.109232,3220.676034"/>
    <poly id="161849936" type="building" color="255,230,230" fill="1" layer="2.00" shape="2543.591278,3034.578446 2508.784964,3053.035597 2492.656711,3061.907156 2475.373677,3071.342618 2466.224154,3053.705644 2464.604308,3050.700281 2477.258434,3042.898428 2475.092152,3038.965214 2482.323930,3013.203420 2498.892679,3004.214843 2519.046358,2993.347380 2523.528806,2980.376679 2524.528559,2982.253503 2525.660408,2984.387219 2526.643793,2986.219444 2527.676536,2988.163267 2528.725903,2990.129488 2529.932176,2992.397298 2530.890491,2994.207027 2532.344589,2996.944019 2537.492045,3006.607439 2542.314391,3015.911802 2535.603077,3019.452923 2540.360080,3028.567785 2541.095630,3029.930830 2541.740130,3031.137383 2542.409438,3032.388634 2543.070433,3033.628686 2543.591278,3034.578446"/>
    <poly id="162004802" type="building" color="255,230,230" fill="1" layer="2.00" shape="2031.491576,3437.756123 2037.342593,3448.659692 2042.302113,3457.809886 2045.955789,3464.535766 2001.956401,3488.306579 1990.022688,3494.518838 1975.701329,3467.785370 2031.491576,3437.756123"/>
    <poly id="162669905" type="building" color="255,230,230" fill="1" layer="2.00" shape="2668.533516,3344.056368 2636.432597,3284.862036 2708.879520,3245.883892 2740.980051,3305.078541 2668.533516,3344.056368"/>
    <poly id="162977896" type="building" color="255,230,230" fill="1" layer="2.00" shape="2107.192803,3183.970720 2103.545674,3177.400321 2102.958536,3176.338802 2105.269628,3175.077742 2104.831353,3174.284402 2106.675187,3173.273275 2106.311344,3172.614025 2108.206216,3171.570183 2107.379159,3170.083997 2113.081231,3166.175522 2118.625950,3162.731520 2123.940429,3159.484692 2125.561673,3162.378972 2128.255100,3160.911410 2132.876843,3169.347198 2107.192803,3183.970720"/>
    <poly id="163455606" type="unknown" color="51,128,255" fill="1" layer="-1.00" shape="2124.370045,3467.476594 2118.250331,3456.458814 2061.211631,3487.105770 2056.434135,3478.279637 2048.374463,3463.453573 2045.955789,3464.535766 2001.956401,3488.306579 1990.022688,3494.518838 1975.701329,3467.785370 1961.305072,3475.223713 1994.972023,3537.353038 2124.370045,3467.476594"/>
    <poly id="164645790" type="building" color="255,230,230" fill="1" layer="2.00" shape="2553.063591,3425.787608 2561.575852,3441.541009 2574.327680,3465.137632 2582.889333,3480.991557 2567.649123,3489.073930 2535.848874,3506.211484 2525.188042,3511.827105 2517.700665,3497.961966 2514.081712,3491.191835 2506.585851,3477.326610 2502.924669,3470.555994 2495.428894,3456.679681 2537.881748,3433.926235 2553.063591,3425.787608"/>
    <poly id="164645790#1" type="tourism" color="207,245,201" fill="1" layer="2.00" shape="2553.063591,3425.787608 2561.575852,3441.541009 2574.327680,3465.137632 2582.889333,3480.991557 2567.649123,3489.073930 2535.848874,3506.211484 2525.188042,3511.827105 2517.700665,3497.961966 2514.081712,3491.191835 2506.585851,3477.326610 2502.924669,3470.555994 2495.428894,3456.679681 2537.881748,3433.926235 2553.063591,3425.787608"/>
    <poly id="164842325" type="building" color="255,230,230" fill="0" layer="2.00" shape="1459.575648,2238.665179 1446.216956,2246.038780"/>
    <poly id="167922072" type="unknown" color="51,128,255" fill="0" layer="-1.00" shape="1954.137865,3462.051218 1942.209639,3468.518969 1894.377869,3494.466498 1884.247927,3500.211293 1828.020202,3530.203258 1791.498654,3549.876200 1771.143191,3560.898681 1758.816880,3567.506449"/>
    <poly id="167923358" type="unknown" color="51,128,255" fill="0" layer="-1.00" shape="1553.668035,2231.932359 1552.430203,2222.103770 1544.103519,2156.194122 1543.035805,2147.721962"/>
    <poly id="194926854" type="boundary.administrative" color="128,0,51" fill="0" layer="-12.00" shape="1168.941763,3159.228287 1208.930979,3233.216832 1246.196375,3302.444819 1283.072718,3370.935807 1319.936219,3439.748820 1357.634220,3509.348789"/>
    <poly id="195743165" type="unknown" color="51,128,255" fill="0" layer="-1.00" shape="1983.586808,2535.112804 1991.692227,2530.776860 2117.625189,2463.380022"/>
    <poly id="195743182" type="boundary.administrative" color="128,0,51" fill="0" layer="-12.00" shape="2176.101047,2890.261344 2179.712435,2897.008994 2207.040743,2948.129955 2209.652109,2953.011942 2212.835661,2958.788750 2217.149086,2966.876838 2246.631865,3022.186315 2249.837846,3028.207651 2253.698099,3035.324606 2283.894909,3090.897897 2287.341902,3097.244017"/>
    <poly id="195743190" type="unknown" color="51,128,255" fill="0" layer="-1.00" shape="1332.224231,2884.669318 1327.891771,2876.681475 1295.597123,2817.080332"/>
    <poly id="195743208" type="unknown" color="51,128,255" fill="0" layer="-1.00" shape="1168.941763,3159.228287 1233.948306,3124.236186 1296.359286,3091.079996 1410.836210,3030.256773"/>
    <poly id="195743343" type="unknown" color="51,128,255" fill="0" layer="-1.00" shape="1923.473795,2749.933206 1884.876278,2676.434230 1847.982876,2608.839350"/>
    <poly id="196116997" type="unknown" color="51,128,255" fill="0" layer="-1.00" shape="1864.933639,1972.945870 1855.799796,1977.814084"/>
    <poly id="196117042" type="unknown" color="51,128,255" fill="0" layer="-1.00" shape="1760.287299,2119.673739 1797.654937,2188.905543 1834.624170,2257.477928 1872.059204,2326.599916"/>
    <poly id="196117051" type="unknown" color="51,128,255" fill="0" layer="-1.00" shape="1902.555139,2042.847258 1919.394134,2074.128156 1939.787437,2112.022719 1976.878317,2180.952508 2014.175188,2250.262369"/>