<?xml version="1.0" encoding="UTF-8"?>
<!-- generated on 2020-05-16 12:57:04.250178 by $Id$
  options: -n erlangen.net.xml -r erlangen.rou.xml -e 4 -l
-->
<routes xmlns:xsi="http://www.w3.org/2001/XMLSchema-instance" xsi:noNamespaceSchemaLocation="http://sumo.dlr.de/xsd/routes_file.xsd">
    <trip id="0" depart="0.00" from="458166896#16" to="-195743208#0"/>
    <trip id="1" depart="1.00" from="496990647#1" to="5670466"/>
    <trip id="2" depart="2.00" from="788278348#1" to="46522006#0"/>
    <trip id="3" depart="3.00" from="5670600" to="587038101"/>
</routes>
