<?xml version="1.0" encoding="UTF-8"?>
<!-- generated on 2020-05-15 22:48:31.256163 by $Id$
  options: -n erlangen.net.xml -r erlangen.rou.xml -e 2 -l
-->
<routes xmlns:xsi="http://www.w3.org/2001/XMLSchema-instance" xsi:noNamespaceSchemaLocation="http://sumo.dlr.de/xsd/routes_file.xsd">
    <trip id="0" depart="0.00" from="5671693#0" to="420598330#1"/>
    <trip id="1" depart="1.00" from="46522005" to="5672965#0"/>
</routes>
