<?xml version="1.0" encoding="UTF-8"?>

<!-- generated on Fri May 15 22:48:00 2020 by Eclipse SUMO duarouter Version 1.2.0
<configuration xmlns:xsi="http://www.w3.org/2001/XMLSchema-instance" xsi:noNamespaceSchemaLocation="http://sumo.dlr.de/xsd/duarouterConfiguration.xsd">

    <input>
        <net-file value="erlangen.net.xml"/>
        <route-files value="trips.trips.xml"/>
    </input>

    <output>
        <output-file value="erlangen.rou.xml"/>
        <alternatives-output value="erlangen.rou.alt.xml"/>
    </output>

    <time>
        <begin value="0"/>
        <end value="200.0"/>
    </time>

    <report>
        <no-warnings value="true"/>
        <ignore-errors value="true"/>
        <no-step-log value="true"/>
    </report>

</configuration>
-->

<routes xmlns:xsi="http://www.w3.org/2001/XMLSchema-instance" xsi:noNamespaceSchemaLocation="http://sumo.dlr.de/xsd/routes_file.xsd">
    <vehicle id="0" depart="0.00">
        <route edges="384649120#4 226041022#0 226041022#1 226041022#2 226041022#3 438385431#3 438385431#4 438385431#5 420496529 458166892#0 458166892#1 195743343#0 195743343#1 5671693#0"/>
    </vehicle>
    <vehicle id="1" depart="0.00">
        <route edges="788278351#1 5671317 447001272#1 447001272#2 447001272#3 420499932#0 420499932#1 420499932#2 542096279#0 542096279#1 458166894#0 458166894#1 195743182#0 195743182#1 195743182#2 195743182#3 511699182#0 511699182#1 511699182#2 511699182#3 511699182#4 -5672991#1 -5672991#0 5672991#0"/>
    </vehicle>
    <vehicle id="2" depart="0.00">
        <route edges="46469731#1 46469731#2 542096279#1 458166894#0 458166894#1 195743182#0 195743182#1 195743182#2 195743182#3 226041004 771759767 771759765 226041002 771759764"/>
    </vehicle>
    <vehicle id="3" depart="0.00">
        <route edges="447001272#0 447001272#1 447001272#2 447001272#3 420499932#0 420499932#1 420499932#2 542096279#0 542096279#1 458166894#0 458166894#1 420499931#0 420499931#1 420904660#0 420904660#1 420904660#2 5671181 46522005 500717399"/>
    </vehicle>
    <vehicle id="4" depart="0.00">
        <route edges="465101198#1 -465101198#1 -465101198#0 630828586#0 630828586#1 630828586#2 489019752#0 489019752#1 489019752#2 489019752#3 489019752#4 68668519#0 68668519#1 460606347#0 460606347#1 460606347#2 439933932#0 439933932#1 496982024#0 496982024#1 496983397#0 496983397#1 496983396#0 496983396#1 5673561#0 5673561#1 5673561#2 5673561#3 5673561#4 464543615#2 5670803 492489884 484170269#0"/>
    </vehicle>
    <vehicle id="5" depart="0.00">
        <route edges="5673561#7 194926854#1 46481747#0 46481747#1 46481747#2 46481747#3 46522006#0 46522006#1 5673231 458166894#0 458166894#1 195743182#0 195743182#1 195743182#2 195743182#3 511699182#0 511699182#1 511699182#2 511699182#3 511699182#4 511699181#0 511699181#1 5673515#0 5673515#1 511699184#0 511699184#1"/>
    </vehicle>
    <vehicle id="6" depart="0.00">
        <route edges="788278351#0 788278351#1 5671317 447001272#1 447001272#2 447001272#3 420499932#0 420499932#1 420499932#2 542096279#0 542096279#1 458166893#0 458166893#1 458166893#2 518451332 458166895#0 458166895#1 587038101 729972919#0 729972919#1 729972918 226040999 226041001#0"/>
    </vehicle>
    <vehicle id="7" depart="0.00">
        <route edges="458166897#3 458166897#4 619454130 496990647#2 630828556 671212509 458177133#0 458177133#1 458177133#2 458177129 518451322 541351705 458166896#0 540356239#6 540356239#7 540356239#8 44165026 46520834"/>
    </vehicle>
    <vehicle id="8" depart="0.00">
        <route edges="5669669#2 489019752#3 226041019 788278350#0 788278350#1 788278345#0 788278345#1 788278348#0 788278348#1 5671401#0 5671401#1 464683339#1 464683339#2"/>
    </vehicle>
    <vehicle id="9" depart="0.00">
        <route edges="496983397#1 496983396#0 496983396#1 587038081#0 587038081#1 384649120#0 384649120#1 384649120#2 384649120#3 36806906#1 542257982#0 569345547#1"/>
    </vehicle>
    <vehicle id="10" depart="0.00">
        <route edges="489019752#2 489019752#3 489019752#4 68668519#0 68668519#1 460606347#0 460606347#1 460606347#2 439933932#0 439933932#1 496982024#0 496982024#1 496983397#0 496983397#1 496983396#0 496983396#1 587038081#0 587038081#1 384649120#0 46522006#0 46522006#1 5673231 458166894#0 458166894#1 195743182#0 195743182#1 195743182#2 195743182#3 226041004 771759767 771759765 386972970 44165033#0 44165033#1"/>
    </vehicle>
    <vehicle id="11" depart="0.00">
        <route edges="388240124#19 388240124#20 388240124#21 388240124#22 388240124#23 587061869#0 587061869#1 587061869#2 587061869#3 542096278#0 542096278#1 542096278#2 571651963"/>
    </vehicle>
    <vehicle id="12" depart="0.00">
        <route edges="428569470#3 428569470#4 428569470#5 388240124#3 388240124#4 388240124#5 388240124#6 388240124#7 388240124#8 388240124#9 388240124#10 388240124#11 388240124#12 388240124#13 388240124#14 388240124#15 388240124#16 388240124#17 46334598#0 46334598#1 46334598#2 46334598#3 46334598#4 447001271#0 447001271#1 447001271#2 46490538#0 46490538#1 46490538#2 46490538#3 46490538#4 46490538#5 464515259#0 464515259#1 464515259#2"/>
    </vehicle>
    <vehicle id="13" depart="0.00">
        <route edges="-511699179 511699178 5673515#0 5673515#1 511699184#0 511699184#1 511699184#2 511699185#0 511699185#1 511699185#2 438385431#0 438385431#1 438385431#2 438385431#3 438385431#4 438385431#5 420496529 5673231 458166893#0 458166893#1 458166893#2 518451332 518451322 541351705 458166896#0 458166896#1 385668565#3 385668565#4 385668565#5 385668565#6 385668565#7 385668565#8"/>
    </vehicle>
    <vehicle id="14" depart="0.00">
        <route edges="464515259#1 68668556 226041020 226041019 46334597 788278351#0 788278351#1 5671317 447001272#1 447001272#2 447001272#3 420499932#0 420499932#1 46520833#2 46520833#3"/>
    </vehicle>
    <vehicle id="15" depart="0.00">
        <route edges="-571651963 -542096278#2 542096278#2 571651963 573476360 68674961#1 68674961#2 458177128#1 458177128#2 458177128#3 420499931#0 420499931#1 420904660#0 420904660#1 420904660#2 5671181 46522005 500717399 464543615#0 464543615#1 5673561#5 5673561#6 5673561#7"/>
    </vehicle>
    <vehicle id="16" depart="0.00">
        <route edges="36806906#0 384649120#4 226041022#0 226041022#1 226041022#2 226041022#3 438385431#3 438385431#4 438385431#5 420496529 458166892#0 458166892#1 195743343#0 195743343#1 588168464 46490538#0 46490538#1 46490538#2 46490538#3 46581216#0 46581216#1 46581216#2 788278350#0"/>
    </vehicle>
    <vehicle id="17" depart="0.00">
        <route edges="540356239#7 540356239#8 5673380#2 -571651963 458166896#0 458166896#1 458166896#2 458166896#3 226040998#1"/>
    </vehicle>
    <vehicle id="18" depart="0.00">
        <route edges="226041022#2 226041022#3 438385431#3 438385431#4 438385431#5 420904660#0 420904660#1 420904660#2 5671181 46522005 500717399 464543615#0 464543615#1 464543615#2 5670803 492489884 195743190 464515259#2 464515259#3 767683114"/>
    </vehicle>
    <vehicle id="19" depart="0.00">
        <route edges="5671393#1 667597422#0 667597422#1 196117042#0 196117042#1 5671401#1 5671401#2 5671401#3 5671401#4 5671401#5 5671401#6 5671401#7 5671401#8 388240124#9 388240124#10 388240124#11 226040993#0 226040993#1 226040993#2"/>
    </vehicle>
    <vehicle id="20" depart="0.00">
        <route edges="222299258#0 222299258#1 226040993#0 226040993#1 226040993#2 226040993#3 226040993#4 226040993#5 226040993#6 420514148#0 420514148#1"/>
    </vehicle>
    <vehicle id="21" depart="0.00">
        <route edges="226040993#3 226040993#4 458166896#6 458166896#7 458166896#8 5671401#6 5671401#7 5671401#8 388240124#9 388240124#10 388240124#11 388240124#12 388240124#13 388240124#14 226040995#0 226040995#1"/>
    </vehicle>
    <vehicle id="22" depart="0.00">
        <route edges="226040995#1 381474197#0 381474197#1 222299258#0 222299258#1 388240124#12 388240124#13 388240124#14 388240124#15 388240124#16 388240124#17 388240124#18 388240124#19 388240124#20 388240124#21 388240124#22 388240124#23 587061869#0 587061869#1 587061869#2 587061869#3 542096278#0 542096278#1 542096278#2 571651963 384178814 68674965 46520833#0 46520833#1"/>
    </vehicle>
    <vehicle id="23" depart="0.00">
        <route edges="542096279#0 542096279#1 458166893#0 458166893#1 458166893#2 518451332 518451322 541351705 458166896#0 540356239#6 540356239#7 540356239#8 44165026 46520834"/>
    </vehicle>
    <vehicle id="24" depart="0.00">
        <route edges="5672149#0 438384693#1 420356173 458177130 438397345 464515891 511699184#0 511699184#1 511699184#2 511699185#0 511699185#1 511699185#2 438385431#0 438385431#1 438385431#2 438385431#3 438385431#4 438385431#5 420496529 458166892#0 458166892#1 195743343#0 195743343#1 588168464 464515614#0 464515614#1 464515614#2 464515614#3 587061854 68668552#0 68668552#1 5672965#0 5672965#1 5672273#0 5672273#1 5672273#2 483704512#0 483704512#1"/>
    </vehicle>
    <vehicle id="25" depart="0.00">
        <route edges="518451327#1 541351705 458166896#0 458166896#1 458166896#2 458166896#3 226040998#1"/>
    </vehicle>
    <vehicle id="26" depart="0.00">
        <route edges="196117051#1 196117051#2 420514149#0 226040998#0 226040998#1 226040998#2 388240124#15 388240124#16 388240124#17 46334598#0 46334598#1"/>
    </vehicle>
    <vehicle id="27" depart="0.00">
        <route edges="5670106#4 381565180 771759768 771759769 68674968#0 68674968#1 458177128#2 458177128#3 420499931#0 420499931#1 420496529 458166892#0 458166892#1 195743343#0 195743343#1 588168464 46490538#0 46490538#1 46490538#2 46490538#3 46490538#4 46490538#5"/>
    </vehicle>
    <vehicle id="28" depart="0.00">
        <route edges="542257008#0 569345547#2 464543615#0 46481747#1 46481747#2 46481747#3 46522006#0 46522006#1 5673231 458166894#0 458166894#1 195743182#0 195743182#1 195743182#2 195743182#3 226041004 771759767 771759765 386972970 44165033#0 44165033#1 575746067 46521465"/>
    </vehicle>
    <vehicle id="29" depart="0.00">
        <route edges="438382685#1 -438382685#1 -438382685#0 630828556 671212509 458177133#0 458177133#1 458177133#2 458177129 518451322 541351705 458166896#0 458166896#1 458166896#2 458166896#3 226040998#1"/>
    </vehicle>
    <vehicle id="30" depart="0.00">
        <route edges="5673561#7 194926854#1 46481747#0 46481747#1 46481747#2 46481747#3 46522006#0 46522006#1 5673231 458166893#0 68674968#3 68674968#4 68674965 573476359#0 573476359#1 420598398 464683344 464683341#0 464683341#1 420514148#1"/>
    </vehicle>
    <vehicle id="33" depart="0.00">
        <route edges="36806906#1 803047267#2 700951338 700951339 46481747#2 46481747#3 46522006#0 46522006#1 458166892#0 458166892#1 195743343#0 195743343#1 588168464 464515614#0 464515614#1 464515614#2 464515614#3 5670296#0 5670296#1 5670296#2 5670296#3 489019752#1"/>
    </vehicle>
    <vehicle id="34" depart="0.00">
        <route edges="68668552#1 5672965#0 5672965#1 5672273#0 5672273#1 5672273#2 483704512#0 483704512#1 630828586#2 630828585#0 630828585#1 630828585#2 630828585#3 46334600 788278353#0 788278353#1 5669875#0 5669875#1 5669875#2 464683321 464683320 428569470#0 428569470#1 428569470#2 428569470#3"/>
    </vehicle>
    <vehicle id="35" depart="0.00">
        <route edges="-465101198#0 630828586#0 630828586#1 630828586#2 489019752#0 489019752#1 489019752#2 489019752#3 489019752#4 68668519#0 68668519#1 460606347#0 460606347#1 460606347#2 439933932#0 439933932#1 496982024#0 496982024#1 496983397#0 496983397#1 496983396#0 496983396#1 587038081#0 587038081#1 384649120#0 46522006#0 46522006#1 5673231 458166894#0 458166894#1 195743182#0 195743182#1 195743182#2 195743182#3 511699182#0 511699182#1 511699182#2 511699182#3 511699182#4 438384692#0 438384692#1 -438384692#1"/>
    </vehicle>
    <vehicle id="36" depart="0.00">
        <route edges="542096278#1 542096278#2 571651963 384178814 68674965 573476359#0 573476359#1 420598398 464683344 464683341#0 226040996#1 420514149#1 447001270 5673380#0 5673380#1 44165026 46520834"/>
    </vehicle>
    <vehicle id="37" depart="0.00">
        <route edges="671212509 458177133#0 458177133#1 458177133#2 458177128#0 458177128#1 458177128#2 458177128#3 420499931#0 420499931#1 420496529 458166892#0 458166892#1 5670600 496982022#0"/>
    </vehicle>
    <vehicle id="38" depart="0.00">
        <route edges="542257982#0 569345547#1 569345547#2 464543615#0 46481747#1 46481747#2 46481747#3 46522006#0 46522006#1 458166892#0 458166892#1 195743343#0 5671442#0 5671442#1 690414969 492489893#0 492489893#1"/>
    </vehicle>
    <vehicle id="39" depart="0.00">
        <route edges="5671693#0 5671693#1 195743165#0 195743165#1 464683324 5673380#0 5673380#1 5673380#2 68674961#0 46469731#1 68674968#4 420904658"/>
    </vehicle>
    <vehicle id="40" depart="0.00">
        <route edges="803047267#0 803047267#1 803047267#2 700951338 700951339 46481747#2 46481747#3 46522006#0 46522006#1 5673231 458166893#0 68674968#3 68674968#4 68674965 573476359#0 573476359#1 420598398 464683344 464683341#0 464683341#1 464683339#0 464683339#1 464683339#2 464683320 196117051#0"/>
    </vehicle>
    <vehicle id="41" depart="0.00">
        <route edges="458166894#0 458166894#1 420499931#0 420499931#1 420496529 458166892#0 458166892#1 195743343#0 195743343#1 588168464 46490538#0 46490538#1 46490538#2 46490538#3 46490538#4 46490538#5 464515259#0"/>
    </vehicle>
    <vehicle id="42" depart="0.00">
        <route edges="464543615#2 -195743208#2 -195743208#1 -195743208#0 194926854#0 194926854#1 46481747#0 46481747#1 46481747#2 46481747#3 46522006#0 46522006#1 458166892#0 458166892#1 5670600"/>
    </vehicle>
    <vehicle id="43" depart="0.00">
        <route edges="46469731#3 458166892#1 -420904659 -5671315 -420904658 68674965 573476359#0 573476359#1 420598398 464683344 464683341#0 464683341#1 464683339#0 5671401#2 5671401#3 5671401#4 5671401#5 5671401#6 5671401#7"/>
    </vehicle>
    <vehicle id="44" depart="0.00">
        <route edges="167922072#1 -167922072#1 -167922072#0 -511699183#3 511699183#3 127693103#0 127693103#1 464515890 464515891 511699184#0 511699184#1 511699184#2 511699185#0 511699185#1 511699185#2 438385431#0 438385431#1 438385431#2 438385431#3 438385431#4 438385431#5 420904660#0 420904660#1 420904660#2 5671181 46522005 500717399 464543615#0 464543615#1 464543615#2 -195743208#2 -195743208#1 195743208#1"/>
    </vehicle>
    <vehicle id="45" depart="0.00">
        <route edges="420872209 518451327#0 554083353#2 587038101 46469720#0 46469720#1 458177128#0 68674961#3 483236728#3"/>
    </vehicle>
    <vehicle id="46" depart="0.00">
        <route edges="415849235#2 5671693#0 5671693#1 420499932#0 420499932#1 420499932#2 542096279#0 542096279#1 458166894#0 458166894#1 195743182#0 195743182#1 195743182#2 226041001#5"/>
    </vehicle>
    <vehicle id="47" depart="0.00">
        <route edges="384649120#3 384649120#4 226041022#0 226041022#1 226041022#2 226041022#3 438385431#3 438385431#4 438385431#5 420496529 5673231 458166893#0 458166893#1 458166893#2 518451332 518451322 541351705 458166896#0 458166896#1 458166896#2 458166896#3 458166896#4 458166896#5 458166896#6 458166896#7 458166896#8 458166896#9 458166896#10 458166896#11 458166896#12 458166896#13 458166896#14 458166896#15 458166896#16 409716177"/>
    </vehicle>
    <vehicle id="48" depart="0.00">
        <route edges="458180181#0 -46520921#1 511699176 458177130 438397345 464515891 511699184#0 511699184#1 511699184#2 511699185#0 511699185#1 511699185#2 438385431#0 438385431#1 438385431#2 438385431#3 438385431#4 438385431#5 420496529 458166892#0 458166892#1 195743343#0 195743343#1"/>
    </vehicle>
    <vehicle id="49" depart="0.00">
        <route edges="-511699183#1 -511699183#0 -438384692#2 -438384692#1 -438384692#0 -5672991#1 -5672991#0 5672991#0 5672991#1 511699181#0 511699181#1 5673515#0 5673515#1 511699184#0 511699184#1 511699184#2 511699185#0 511699185#1 511699185#2 438385431#0 438385431#1 438385431#2 438385431#3 438385431#4 438385431#5 420496529 458166892#0 458166892#1 195743343#0 195743343#1 5671693#0"/>
    </vehicle>
    <vehicle id="50" depart="0.00">
        <route edges="46522006#0 46522006#1 458166892#0 458166892#1 195743343#0 195743343#1 588168464 46490538#0 46490538#1 46490538#2 46490538#3 46490538#4 46490538#5 464515259#0 464515259#1"/>
    </vehicle>
    <vehicle id="51" depart="0.00">
        <route edges="68674960#0 68674960#1 5670106#6 671212509 458177133#0 458177133#1 458177133#2 458177129 518451322 541351705 458166896#0 458166896#1 458166896#2 458166896#3 458166896#4 458166896#5 458166896#6 458166896#7 458166896#8 5671401#6 5671401#7"/>
    </vehicle>
    <vehicle id="53" depart="0.00">
        <route edges="713102051#0 713102051#1 5673561#3 5673561#4 5673561#5 5673561#6 5673561#7 194926854#1 46481747#0 46481747#1 46481747#2 46481747#3 46522006#0 46522006#1 5673231 458166893#0 458166893#1 458166893#2 518451332 518451322 541351705 458166896#0 458166896#1 458166896#2 458166896#3 226040998#1 226040998#2 388240124#15 388240124#16 388240124#17 388240124#18 388240124#19"/>
    </vehicle>
    <vehicle id="54" depart="0.00">
        <route edges="68668556 226041020 489019752#4 68668519#0 68668519#1 460606347#0 460606347#1 460606347#2 439933932#0 439933932#1 496982024#0 496982024#1 -496982022#1 -496982022#0 -5670600 195743343#0"/>
    </vehicle>
    <vehicle id="55" depart="0.00">
        <route edges="-587038129#0 587038129#0 587038129#1 554083353#0 554083353#1 554083353#2 587038101 46469720#0 46469720#1 458177128#0 458177128#1 458177128#2 458177128#3 420499931#0 420499931#1 420904660#0 420904660#1 420904660#2 5671181 46522005 500717399 464543615#0 46481747#1"/>
    </vehicle>
    <vehicle id="56" depart="0.00">
        <route edges="46520834 44165029 226041002 771759764 458177133#0 226041001#0 226041001#1 226041001#2 226041001#3 226041001#4 195743182#3 511699182#0 511699182#1 511699182#2 511699182#3 511699182#4 511699181#0 511699181#1 438384693#0 438384693#1 420356173 420906755 458180181#0 458180181#1 420902878#0 420902878#1 22916381 609596058 359180982 575746068 44165031"/>
    </vehicle>
    <vehicle id="57" depart="0.00">
        <route edges="5670600 496982022#0 -496982022#0 -5670600 -420904659 -5671315 542096279#0 542096279#1 458166894#0 458166894#1 195743182#0 195743182#1 195743182#2 195743182#3 226041004 771759767 771759765 386972970 44165033#0 44165033#1"/>
    </vehicle>
    <vehicle id="58" depart="0.00">
        <route edges="464515890 464515891 511699184#0 511699184#1 511699184#2 511699185#0 511699185#1 511699185#2 438385431#0 438385431#1 438385431#2 438385431#3 438385431#4 438385431#5 420496529 5673231 458166893#0 458166893#1 458166893#2 518451332 458166895#0"/>
    </vehicle>
    <vehicle id="59" depart="0.00">
        <route edges="127693103#0 127693103#1 464515890 464515891 511699184#0 511699184#1 511699184#2 511699185#0 511699185#1 511699185#2 438385431#0 438385431#1 438385431#2 438385431#3 438385431#4 438385431#5 420496529 5673231 458166893#0 458166893#1 458166893#2 518451332 518451322 541351705 458166896#0 458166896#1 385668565#3 385668565#4 385668565#5 385668565#6 385668565#7 385668565#8 385668565#9 118400729#8 118400729#9 118400729#10 5672992#0"/>
    </vehicle>
    <vehicle id="60" depart="0.00">
        <route edges="5673626#1 226041000#1 226040999 458177133#1 458177133#2 458177129 518451322 541351705 458166896#0 458166896#1 458166896#2 458166896#3 458166896#4 458166896#5 458166896#6 458166896#7 458166896#8 5671401#6 5671401#7 5671401#8 388240124#9 388240124#10 388240124#11 226040993#0 226040993#1"/>
    </vehicle>
    <vehicle id="61" depart="0.00">
        <route edges="464515259#3 767683114 600848485 194926854#0 194926854#1 46481747#0 46481747#1 46481747#2 46481747#3 46522006#0 46522006#1 5673231 458166893#0"/>
    </vehicle>
    <vehicle id="62" depart="0.00">
        <route edges="5673561#4 5673561#5 5673561#6 5673561#7 194926854#1 46481747#0 46481747#1 46481747#2 46481747#3 46522006#0 46522006#1 5673231 458166894#0 458166894#1 195743182#0 195743182#1 195743182#2 195743182#3 226041004 771759767 771759765 226041002 771759764 458177133#0"/>
    </vehicle>
    <vehicle id="63" depart="0.00">
        <route edges="-5670600 195743343#0 195743343#1 588168464 464515614#0 464515614#1 464515614#2 464515614#3 587061854 68668552#0 68668552#1 5672965#0 5672965#1 5672965#2 5672965#3 5672965#4 5672965#5 788602261#0"/>
    </vehicle>
    <vehicle id="64" depart="0.00">
        <route edges="492489888 5671440#0 5671440#1 600848485 194926854#0 194926854#1 46481747#0 46481747#1 46481747#2 46481747#3 46522006#0 46522006#1 5673231 458166893#0 458166893#1 458166893#2 518451332 518451322 541351705 458166896#0 458166896#1 385668565#3"/>
    </vehicle>
    <vehicle id="65" depart="0.00">
        <route edges="458177128#2 458177128#3 420499931#0 420499931#1 420496529 5673231 458166893#0 458166893#1 458166893#2 518451332 458166895#0 458166895#1 587038101 46469720#0"/>
    </vehicle>
    <vehicle id="66" depart="0.00">
        <route edges="541351705 571651963 573476360 68674961#1 68674961#2 458177128#1 458177128#2 458177128#3 420499931#0 420499931#1 420904660#0 420904660#1 420904660#2 5671181 46522005 500717399 464543615#0 464543615#1 464543615#2 5670803 492489884 195743190 68668556 420512231#0 420512231#1 420512231#2 420598330#0 630828584#1"/>
    </vehicle>
    <vehicle id="67" depart="0.00">
        <route edges="458166893#0 458166893#1 458166893#2 518451332 518451322 541351705 458166896#0 458166896#1 458166896#2 458166896#3 226040998#1 226040998#2 388240124#15 388240124#16 388240124#17 46334598#0 46334598#1"/>
    </vehicle>
    <vehicle id="68" depart="0.00">
        <route edges="5670296#1 5670296#2 5670296#3 489019752#1 489019752#2 489019752#3 489019752#4 68668519#0 68668519#1 460606347#0 460606347#1 460606347#2 439933932#0 439933932#1 496982024#0 496982024#1 496983397#0 496983397#1 496983396#0 496983396#1 587038081#0 587038081#1 384649120#0 46522006#0 46522006#1 5673231 458166893#0 68674968#3 68674968#4 420904658"/>
    </vehicle>
    <vehicle id="69" depart="0.00">
        <route edges="5669669#0 5669669#1 788278350#1 788278345#0 788278345#1 788278348#0 788278348#1 5671401#0 196117042#2 447001272#0 447001272#1 447001272#2 447001272#3 420499932#0 420499932#1 420499932#2 -420904658"/>
    </vehicle>
    <vehicle id="71" depart="0.00">
        <route edges="46520921#0 511699176 458177130 438397345 464515891 511699184#0 511699184#1 511699184#2 511699185#0 511699185#1 511699185#2 438385431#0 438385431#1 438385431#2 438385431#3 438385431#4 438385431#5 420496529 458166892#0 458166892#1 5670600 496982022#0 -496982022#0 -5670600"/>
    </vehicle>
    <vehicle id="72" depart="0.00">
        <route edges="5669875#1 5669875#2 196117042#0 196117042#1 196117042#2 447001272#0 447001272#1 447001272#2 447001272#3 420499932#0 420499932#1 420499932#2 542096279#0 542096279#1 458166893#0 458166893#1 458166893#2 518451332 458166895#0 458166895#1 587038101 729972919#0 729972919#1 729972918 226040999"/>
    </vehicle>
    <vehicle id="73" depart="0.00">
        <route edges="464683339#2 464683320 196117051#0 196117051#1 196117051#2 420514149#0 420514149#1 447001270 5673380#0 5673380#1 5673380#2 68674961#0 68674961#1 68674961#2 458177128#1 458177128#2 458177128#3 195743182#0 195743182#1 483236728#1"/>
    </vehicle>
    <vehicle id="74" depart="0.00">
        <route edges="5671401#0 196117042#2 226040992 464515614#2 464515614#3 5670296#0 788278347#1 788278347#2 788278347#3 167923358#0 167923358#1"/>
    </vehicle>
    <vehicle id="75" depart="0.00">
        <route edges="458166896#16 409716177 464683318 196117051#0 196117051#1 196117051#2 420514149#0 420514149#1 447001270 385668565#0"/>
    </vehicle>
    <vehicle id="77" depart="0.00">
        <route edges="5672487#4 5672487#5 5672487#6 5672487#7 5672487#8 5672487#9 196117042#1 196117042#2 226040992 5669669#0 5669669#1 5669669#2 5669669#3 5669669#4"/>
    </vehicle>
    <vehicle id="78" depart="0.00">
        <route edges="464543615#0 46481747#1 46481747#2 46481747#3 46522006#0 46522006#1 5673231 458166893#0 458166893#1 458166893#2 518451332 518451322 541351705 458166896#0 458166896#1 385668565#3 385668565#4 385668565#5 385668565#6 385668565#7 385668565#8 385668565#9 118400729#8 118400729#9 118400729#10 118400729#11 118400729#12 420872194#0 420872194#1 381474197#0 381474197#1 222299258#0"/>
    </vehicle>
    <vehicle id="79" depart="0.00">
        <route edges="167923358#0 167923358#1 167923358#2 483704512#0 483704512#1 630828586#2 489019752#0 489019752#1 489019752#2 489019752#3 489019752#4 68668519#0 68668519#1 460606347#0 460606347#1 460606347#2 439933932#0 439933932#1 496982024#0 496982024#1 496983397#0 496983397#1 496983396#0 496983396#1 587038081#0 587038081#1 384649120#0 384649120#1 46522005 500717399 464543615#0"/>
    </vehicle>
    <vehicle id="80" depart="0.00">
        <route edges="194926854#3 542257008#0 569345547#2 464543615#0 464543615#1 464543615#2 5670803 492489884 195743190 68668556 420512231#0 420512231#1 420512231#2 420598330#0 420598330#1 420598330#2 396444294#4 396444294#5"/>
    </vehicle>
    <vehicle id="81" depart="0.00">
        <route edges="46520834 44165029 226041002 771759764 458177133#0 458177133#1 458177133#2 458177128#0 458177128#1 458177128#2 458177128#3 420499931#0 420499931#1 420904660#0 420904660#1 420904660#2 5671181 46522005 500717399 464543615#0 464543615#1 5673561#5 5673561#6 5673561#7 194926854#1 46481747#0"/>
    </vehicle>
    <vehicle id="82" depart="0.00">
        <route edges="496990647#2 630828556 671212509 458177133#0 458177133#1 458177133#2 458177128#0 458177128#1 458177128#2 458177128#3 420499931#0 420499931#1 420904660#0 420904660#1 420904660#2 5671181 46522005 700951339 420904657 713102051#0 713102051#1 5673561#3 5673561#4"/>
    </vehicle>
    <vehicle id="83" depart="0.00">
        <route edges="46520834 44165029 226041002 771759764 458177133#0 458177133#1 458177133#2 458177128#0 458177128#1 68674968#2 458166893#1 458166893#2"/>
    </vehicle>
    <vehicle id="84" depart="0.00">
        <route edges="630828585#2 630828585#3 46334600 788278353#0 788278353#1 5669875#0 5669875#1 5669875#2 196117042#0 196117042#1 196117042#2 447001272#0 447001272#1 447001272#2 447001272#3 420499932#0 420499932#1 420499932#2 542096279#0 542096279#1"/>
    </vehicle>
    <vehicle id="85" depart="0.00">
        <route edges="68674961#3 483236728#3 458177133#2 458177128#0 458177128#1 68674968#2 68674968#3 68674968#4 68674965 573476359#0 573476359#1 420598398 464683344 464683341#0 464683341#1 464683339#0 464683339#1 464683339#2 464683320 428569470#0"/>
    </vehicle>
    <vehicle id="86" depart="0.00">
        <route edges="483704512#1 630828586#2 489019752#0 489019752#1 489019752#2 489019752#3 489019752#4 68668519#0 68668519#1 460606347#0 460606347#1 460606347#2 439933932#0 439933932#1 496982024#0 496982024#1 496983397#0 496983397#1 496983396#0 496983396#1 587038081#0 587038081#1 384649120#0 384649120#1 384649120#2 384649120#3 36806906#1"/>
    </vehicle>
    <vehicle id="87" depart="0.00">
        <route edges="226040993#6 420514149#0 420514149#1 447001270 5673380#0 5673380#1 5673380#2 68674961#0 68674961#1 68674961#2 68674961#3 483236728#3 483236728#4"/>
    </vehicle>
    <vehicle id="88" depart="0.00">
        <route edges="68674968#1 458177128#2 458177128#3 420499931#0 420499931#1 420904660#0 420904660#1 420904660#2 5671181 384649120#2 384649120#3 384649120#4 440122868 448686048 127693103#0 127693103#1 464515890"/>
    </vehicle>
    <vehicle id="89" depart="0.00">
        <route edges="542096279#1 458166894#0 458166894#1 195743182#0 195743182#1 195743182#2 195743182#3 226041004 771759767 771759765 386972970 44165033#0 44165033#1"/>
    </vehicle>
    <vehicle id="90" depart="0.00">
        <route edges="5670296#4 420598330#0 630828584#1 489019752#0 489019752#1 489019752#2 489019752#3 489019752#4 68668519#0 68668519#1 460606347#0 460606347#1 460606347#2 439933932#0 439933932#1 496982024#0 496982024#1 496983397#0 496983397#1 496983396#0 496983396#1 587038081#0 587038081#1 384649120#0 46522006#0 46522006#1 5673231 458166894#0 458166894#1 420499931#0 420499931#1 420904660#0 420904660#1"/>
    </vehicle>
    <vehicle id="91" depart="0.00">
        <route edges="226041004 771759768 771759769 226041001#2 226041001#3 226041001#4 195743182#3 511699182#0 511699182#1 511699182#2 511699182#3 511699182#4 511699181#0 511699181#1 5673515#0 5673515#1 5672464"/>
    </vehicle>
    <vehicle id="92" depart="0.00">
        <route edges="5671440#0 5671440#1 600848485 194926854#0 194926854#1 46481747#0"/>
    </vehicle>
    <vehicle id="93" depart="0.00">
        <route edges="5671401#1 5671401#2 196117051#2 420514149#0 420514149#1 447001270 5673380#0 5673380#1 5673380#2 -571651963 -542096278#2 542096278#2 571651963"/>
    </vehicle>
    <vehicle id="94" depart="0.00">
        <route edges="5669669#2 489019752#3 489019752#4 68668519#0 68668519#1 460606347#0 460606347#1 460606347#2 439933932#0 439933932#1 496982024#0 496982024#1 496983397#0 496983397#1 496983396#0 496983396#1 587038081#0 587038081#1 384649120#0 46522006#0 46522006#1 5673231 458166894#0 458166894#1 195743182#0 195743182#1 195743182#2 195743182#3 511699182#0 511699182#1 511699182#2 511699182#3"/>
    </vehicle>
    <vehicle id="95" depart="0.00">
        <route edges="226040998#1 226040998#2 388240124#15 388240124#16 388240124#17 46334598#0 46334598#1 46334598#2 46334598#3 46334598#4 447001271#0 447001271#1 447001272#2 447001272#3 420499932#0 420499932#1 46520833#2 46520833#3"/>
    </vehicle>
    <vehicle id="96" depart="0.00">
        <route edges="511699176 458177130 438397345 464515891 511699184#0 511699184#1 511699184#2 511699185#0 511699185#1 511699185#2 438385431#0 438385431#1 438385431#2 438385431#3 36806906#0 36806906#1 542257982#0 542257982#1"/>
    </vehicle>
    <vehicle id="97" depart="0.00">